[Format]      =  4.0
[Frequency]   =  0
[Precision]   =  1e-008
[MinAngle]    =  30
[DoSmartMesh] =  1
[Depth]       =  12.85
[LengthUnits] =  millimeters
[ProblemType] =  planar
[Coordinates] =  cartesian
[ACSolver]    =  0
[PrevType]    =  0
[PrevSoln]    =  ""
[Comment]     =  "Add comments here."
[PointProps]   = 0
[BdryProps]   = 2
  <BeginBdry>
    <BdryName> = "Asymptotic_1"
    <BdryType> = 2
    <A_0> = 0
    <A_1> = 0
    <A_2> = 0
    <Phi> = 0
    <c0> = 39177565.747315705
    <c0i> = 0
    <c1> = 0
    <c1i> = 0
    <Mu_ssd> = 0
    <Sigma_ssd> = 0
    <innerangle> = 0
    <outerangle> = 0
  <EndBdry>
  <BeginBdry>
    <BdryName> = "Asymptotic_2"
    <BdryType> = 2
    <A_0> = 0
    <A_1> = 0
    <A_2> = 0
    <Phi> = 0
    <c0> = 13153301.081974821
    <c0i> = 0
    <c1> = 0
    <c1i> = 0
    <Mu_ssd> = 0
    <Sigma_ssd> = 0
    <innerangle> = 0
    <outerangle> = 0
  <EndBdry>
[BlockProps]  = 5
  <BeginBlock>
    <BlockName> = "Air"
    <Mu_x> = 1
    <Mu_y> = 1
    <H_c> = 0
    <H_cAngle> = 0
    <J_re> = 0
    <J_im> = 0
    <Sigma> = 0
    <d_lam> = 0
    <Phi_h> = 0
    <Phi_hx> = 0
    <Phi_hy> = 0
    <LamType> = 0
    <LamFill> = 1
    <NStrands> = 0
    <WireD> = 0
    <BHPoints> = 0
  <EndBlock>
  <BeginBlock>
    <BlockName> = "N42"
    <Mu_x> = 1.05
    <Mu_y> = 1.05
    <H_c> = 994529
    <H_cAngle> = 0
    <J_re> = 0
    <J_im> = 0
    <Sigma> = 0.66700000000000004
    <d_lam> = 0
    <Phi_h> = 0
    <Phi_hx> = 0
    <Phi_hy> = 0
    <LamType> = 0
    <LamFill> = 1
    <NStrands> = 0
    <WireD> = 0
    <BHPoints> = 0
  <EndBlock>
  <BeginBlock>
    <BlockName> = "wire"
    <Mu_x> = 1
    <Mu_y> = 1
    <H_c> = 0
    <H_cAngle> = 0
    <J_re> = 0
    <J_im> = 0
    <Sigma> = 0
    <d_lam> = 0
    <Phi_h> = 0
    <Phi_hx> = 0
    <Phi_hy> = 0
    <LamType> = 0
    <LamFill> = 1
    <NStrands> = 0
    <WireD> = 0
    <BHPoints> = 0
  <EndBlock>
  <BeginBlock>
    <BlockName> = "M-19 Steel"
    <Mu_x> = 4416
    <Mu_y> = 4416
    <H_c> = 0
    <H_cAngle> = 0
    <J_re> = 0
    <J_im> = 0
    <Sigma> = 1.8999999999999999
    <d_lam> = 0.20000000000000001
    <Phi_h> = 0
    <Phi_hx> = 0
    <Phi_hy> = 0
    <LamType> = 0
    <LamFill> = 0.92800000000000005
    <NStrands> = 0
    <WireD> = 0
    <BHPoints> = 47
      0	0
      0.050000000000000003	15.120714
      0.10000000000000001	22.718292000000002
      0.14999999999999999	27.842732999999999
      0.20000000000000001	31.871434000000001
      0.25	35.365043999999997
      0.29999999999999999	38.600588000000002
      0.34999999999999998	41.736201999999999
      0.40000000000000002	44.873978999999999
      0.45000000000000001	48.087806999999998
      0.5	51.437235999999999
      0.55000000000000004	54.975220999999998
      0.59999999999999998	58.752992999999996
      0.65000000000000002	62.823644000000002
      0.69999999999999996	67.245284999999996
      0.75	72.084406000000001
      0.80000000000000004	77.420100000000005
      0.84999999999999998	83.350020999999998
      0.90000000000000002	89.999611999999999
      0.94999999999999996	97.537352999999996
      1	106.20140600000001
      1.05	116.34846400000001
      1.1000000000000001	128.54732899999999
      1.1499999999999999	143.76543100000001
      1.2	163.75416899999999
      1.25	191.86815799999999
      1.3	234.833507
      1.3500000000000001	306.50976900000001
      1.3999999999999999	435.255202
      1.45	674.911968
      1.5	1108.3255690000001
      1.55	1813.085468
      1.6000000000000001	2801.2174209999998
      1.6499999999999999	4053.6531169999998
      1.7	5591.10689
      1.75	7448.318413
      1.8	9708.81567
      1.8500000000000001	12486.931615
      1.8999999999999999	16041.483644
      1.95	21249.420623999998
      2	31313.495878000002
      2.0499999999999998	53589.446877000002
      2.1000000000000001	88477.484601000004
      2.1499999999999999	124329.41054
      2.2000000000000002	159968.5693
      2.25	197751.604272
      2.2999999999999998	234024.75134700001
  <EndBlock>
  <BeginBlock>
    <BlockName> = "1018 Steel"
    <Mu_x> = 529
    <Mu_y> = 529
    <H_c> = 0
    <H_cAngle> = 0
    <J_re> = 0
    <J_im> = 0
    <Sigma> = 5.7999999999999998
    <d_lam> = 0
    <Phi_h> = 20
    <Phi_hx> = 0
    <Phi_hy> = 0
    <LamType> = 0
    <LamFill> = 1
    <NStrands> = 0
    <WireD> = 0
    <BHPoints> = 13
      0	0
      0.25030000000000002	238.73249999999999
      0.92500000000000004	795.77499999999998
      1.25	1591.55
      1.3899999999999999	2387.3249999999998
      1.5249999999999999	3978.875
      1.71	7957.75
      1.8700000000000001	15915.5
      1.9550000000000001	23873.25
      2.02	39788.75
      2.1099999999999999	79577.5
      2.2250000000000001	159155
      2.4300000000000002	318310
  <EndBlock>
[CircuitProps]  = 3
  <BeginCircuit>
    <CircuitName> = "A"
    <TotalAmps_re> = 38.637033051562717
    <TotalAmps_im> = 0
    <CircuitType> = 1
  <EndCircuit>
  <BeginCircuit>
    <CircuitName> = "B"
    <TotalAmps_re> = -10.352761804100773
    <TotalAmps_im> = -0
    <CircuitType> = 1
  <EndCircuit>
  <BeginCircuit>
    <CircuitName> = "C"
    <TotalAmps_re> = -28.28427124746192
    <TotalAmps_im> = -0
    <CircuitType> = 1
  <EndCircuit>
[NumPoints] = 472
0	50	0	1
4.6207017022342187	49.786033340475818	0	1
4.6207017022342187	49.286033340475818	0	1
1.8321854353278137	48.91891820937451	0	1
1.8321854353278137	28.901984300919075	0	1
3.7800385266926937	28.71224318538555	0	1
6.4613286123031761	49.078663380570546	0	1
12.940952255126033	48.296291314453413	0	1
8.4223184988583171	49.285540994330063	0	1
8.2929089763070571	48.80257808118553	0	1
10.891392467864806	47.726250977379721	0	1
5.7106287477981041	28.391377552081231	0	1
17.348828718390102	46.893689789778357	0	1
17.219419195838846	46.410726876633824	0	1
14.430902928932438	46.777842007735138	0	1
9.2501392088657344	27.442968582436649	0	1
11.082512201293	26.755551261526865	0	1
18.943656969831466	45.734033577510743	0	1
24.999999999999993	43.301270189221938	0	1
20.891371612793073	45.426320477628209	0	1
20.641371612793073	44.993307775735992	0	1
22.872739973249516	43.281118612635403	0	1
12.864273019021798	25.945945342038858	0	1
28.894661727682738	40.805618775393988	0	1
28.644661727682738	40.372606073501771	0	1
26.046178236124987	41.44893317730758	0	1
16.037711281897273	24.113759906711042	0	1
17.629730984092546	22.975512734834172	0	1
30.135006410739074	39.272704965207566	0	1
35.35533905932737	35.355339059327378	0	1
31.93671227593995	38.47137129092004	0	1
31.583158885346677	38.117817900326763	0	1
33.295348048447266	35.886449539870334	0	1
19.141238343215491	21.732339834638545	0	1
38.471371290920032	31.936712275939961	0	1
38.117817900326756	31.583158885346691	0	1
35.88644953987032	33.295348048447281	0	1
21.732339834638537	19.141238343215498	0	1
22.975512734834169	17.629730984092554	0	1
39.272704965207559	30.135006410739091	0	1
43.301270189221924	25.000000000000014	0	1
40.805618775393981	28.894661727682752	0	1
40.372606073501764	28.644661727682756	0	1
41.44893317730758	26.046178236125009	0	1
24.113759906711042	16.03771128189728	0	1
45.426320477628202	20.891371612793083	0	1
44.993307775735978	20.641371612793083	0	1
43.281118612635396	22.872739973249526	0	1
25.945945342038854	12.864273019021804	0	1
26.755551261526861	11.082512201293003	0	1
45.734033577510736	18.943656969831476	0	1
48.296291314453406	12.940952255126049	0	1
46.89368978977835	17.348828718390116	0	1
46.410726876633824	17.219419195838856	0	1
46.777842007735131	14.430902928932452	0	1
27.442968582436645	9.2501392088657433	0	1
49.285540994330063	8.4223184988583313	0	1
48.802578081185523	8.2929089763070714	0	1
47.726250977379713	10.89139246786482	0	1
28.391377552081227	5.710628747798113	0	1
28.712243185385546	3.7800385266927008	0	1
49.078663380570539	6.4613286123031886	0	1
50	1.4210854715202004e-014	0	1
49.786033340475818	4.6207017022342338	0	1
49.286033340475818	4.620701702234232	0	1
48.91891820937451	1.8321854353278297	0	1
28.901984300919075	1.8321854353278226	0	1
49.786033340475818	-4.6207017022342045	0	1
49.286033340475818	-4.6207017022342045	0	1
48.91891820937451	-1.8321854353278	0	1
28.901984300919075	-1.8321854353278055	0	1
28.71224318538555	-3.7800385266926857	0	1
49.078663380570546	-6.4613286123031619	0	1
48.29629131445342	-12.940952255126019	0	1
49.285540994330063	-8.4223184988583029	0	1
48.80257808118553	-8.2929089763070429	0	1
47.726250977379721	-10.891392467864792	0	1
28.391377552081231	-5.7106287477980961	0	1
46.893689789778364	-17.348828718390088	0	1
46.410726876633831	-17.219419195838828	0	1
46.777842007735138	-14.430902928932422	0	1
27.442968582436649	-9.2501392088657255	0	1
26.755551261526868	-11.082512201292991	0	1
45.73403357751075	-18.943656969831451	0	1
43.301270189221938	-24.999999999999979	0	1
45.426320477628224	-20.891371612793058	0	1
44.993307775736	-20.641371612793058	0	1
43.281118612635417	-22.872739973249498	0	1
25.945945342038865	-12.864273019021789	0	1
40.805618775393988	-28.894661727682731	0	1
40.372606073501771	-28.644661727682731	0	1
41.44893317730758	-26.04617823612498	0	1
24.113759906711042	-16.037711281897266	0	1
22.975512734834172	-17.629730984092543	0	1
39.272704965207566	-30.135006410739066	0	1
35.355339059327378	-35.355339059327363	0	1
38.47137129092004	-31.936712275939943	0	1
38.11781790032677	-31.58315888534667	0	1
35.886449539870334	-33.295348048447266	0	1
21.732339834638545	-19.141238343215484	0	1
31.936712275939975	-38.471371290920011	0	1
31.583158885346698	-38.117817900326742	0	1
33.295348048447295	-35.886449539870299	0	1
19.141238343215505	-21.732339834638527	0	1
17.629730984092564	-22.975512734834158	0	1
30.135006410739098	-39.272704965207545	0	1
25.000000000000025	-43.301270189221917	0	1
28.894661727682767	-40.805618775393974	0	1
28.644661727682767	-40.37260607350175	0	1
26.046178236125026	-41.448933177307566	0	1
16.037711281897291	-24.113759906711032	0	1
20.891371612793094	-45.426320477628195	0	1
20.641371612793094	-44.993307775735985	0	1
22.872739973249537	-43.281118612635389	0	1
12.864273019021809	-25.945945342038851	0	1
11.08251220129301	-26.755551261526861	0	1
18.943656969831487	-45.734033577510729	0	1
12.940952255126062	-48.296291314453413	0	1
17.348828718390131	-46.89368978977835	0	1
17.219419195838867	-46.410726876633817	0	1
14.430902928932463	-46.777842007735131	0	1
9.2501392088657486	-27.442968582436642	0	1
8.4223184988583348	-49.285540994330063	0	1
8.2929089763070749	-48.802578081185523	0	1
10.891392467864824	-47.726250977379713	0	1
5.710628747798113	-28.391377552081227	0	1
3.7800385266927017	-28.712243185385546	0	1
6.4613286123031921	-49.078663380570546	0	1
1.7763568394002505e-014	-50	0	1
4.6207017022342374	-49.786033340475818	0	1
4.6207017022342356	-49.286033340475818	0	1
1.8321854353278333	-48.91891820937451	0	1
1.8321854353278244	-28.901984300919075	0	1
-4.6207017022341903	-49.786033340475818	0	1
-4.6207017022341912	-49.286033340475818	0	1
-1.832185435327786	-48.91891820937451	0	1
-1.8321854353277973	-28.901984300919075	0	1
-3.7800385266926773	-28.712243185385553	0	1
-6.4613286123031486	-49.078663380570553	0	1
-12.940952255126007	-48.29629131445342	0	1
-8.4223184988582886	-49.28554099433007	0	1
-8.2929089763070287	-48.802578081185537	0	1
-10.89139246786478	-47.726250977379728	0	1
-5.7106287477980882	-28.391377552081234	0	1
-17.348828718390063	-46.893689789778371	0	1
-17.219419195838803	-46.410726876633838	0	1
-14.430902928932399	-46.777842007735146	0	1
-9.2501392088657113	-27.442968582436652	0	1
-11.082512201292975	-26.755551261526875	0	1
-18.943656969831427	-45.73403357751075	0	1
-24.999999999999957	-43.301270189221952	0	1
-20.891371612793034	-45.426320477628224	0	1
-20.641371612793037	-44.993307775736014	0	1
-22.872739973249477	-43.281118612635424	0	1
-12.864273019021775	-25.945945342038872	0	1
-28.89466172768271	-40.805618775394009	0	1
-28.64466172768271	-40.372606073501785	0	1
-26.046178236124963	-41.448933177307602	0	1
-16.037711281897256	-24.113759906711056	0	1
-17.629730984092532	-22.975512734834183	0	1
-30.135006410739049	-39.272704965207588	0	1
-35.355339059327342	-35.355339059327406	0	1
-31.936712275939925	-38.471371290920068	0	1
-31.583158885346652	-38.117817900326791	0	1
-33.295348048447245	-35.886449539870355	0	1
-19.141238343215473	-21.732339834638559	0	1
-38.471371290919997	-31.936712275939993	0	1
-38.11781790032672	-31.583158885346716	0	1
-35.886449539870284	-33.295348048447309	0	1
-21.732339834638523	-19.141238343215512	0	1
-22.975512734834155	-17.629730984092571	0	1
-39.272704965207524	-30.135006410739116	0	1
-43.301270189221896	-25.000000000000043	0	1
-40.805618775393953	-28.894661727682784	0	1
-40.372606073501743	-28.644661727682788	0	1
-41.448933177307552	-26.046178236125044	0	1
-24.113759906711024	-16.037711281897302	0	1
-45.426320477628195	-20.891371612793101	0	1
-44.993307775735978	-20.641371612793101	0	1
-43.281118612635382	-22.872739973249541	0	1
-25.945945342038847	-12.864273019021812	0	1
-26.755551261526858	-11.082512201293014	0	1
-45.734033577510722	-18.94365696983149	0	1
-48.296291314453406	-12.940952255126065	0	1
-46.89368978977835	-17.348828718390134	0	1
-46.410726876633809	-17.219419195838874	0	1
-46.777842007735131	-14.430902928932472	0	1
-27.442968582436642	-9.2501392088657539	0	1
-49.285540994330056	-8.4223184988583597	0	1
-48.802578081185523	-8.2929089763070998	0	1
-47.726250977379706	-10.891392467864849	0	1
-28.391377552081224	-5.710628747798129	0	1
-28.712243185385546	-3.7800385266927172	0	1
-49.078663380570539	-6.4613286123032152	0	1
-50	-4.2632564145606011e-014	0	1
-49.786033340475818	-4.6207017022342622	0	1
-49.286033340475818	-4.6207017022342622	0	1
-48.918918209374517	-1.8321854353278582	0	1
-28.901984300919075	-1.8321854353278395	0	1
-49.786033340475825	4.6207017022341654	0	1
-49.286033340475825	4.6207017022341663	0	1
-48.91891820937451	1.8321854353277613	0	1
-28.901984300919079	1.8321854353277827	0	1
-28.712243185385553	3.780038526692663	0	1
-49.078663380570553	6.4613286123031237	0	1
-48.296291314453427	12.940952255125982	0	1
-49.28554099433007	8.4223184988582638	0	1
-48.802578081185537	8.2929089763070056	0	1
-47.726250977379735	10.891392467864755	0	1
-28.391377552081238	5.7106287477980739	0	1
-46.893689789778378	17.348828718390038	0	1
-46.410726876633838	17.219419195838778	0	1
-46.777842007735153	14.430902928932376	0	1
-27.442968582436659	9.2501392088656971	0	1
-26.755551261526879	11.082512201292962	0	1
-45.734033577510765	18.943656969831402	0	1
-43.301270189221967	24.999999999999936	0	1
-45.426320477628238	20.891371612793009	0	1
-44.993307775736021	20.641371612793012	0	1
-43.281118612635431	22.872739973249455	0	1
-25.945945342038879	12.864273019021763	0	1
-40.805618775394009	28.894661727682706	0	1
-40.372606073501785	28.644661727682706	0	1
-41.448933177307602	26.046178236124959	0	1
-24.113759906711056	16.037711281897256	0	1
-22.975512734834187	17.629730984092529	0	1
-39.272704965207588	30.135006410739045	0	1
-35.355339059327406	35.355339059327342	0	1
-38.471371290920068	31.936712275939922	0	1
-38.117817900326791	31.583158885346649	0	1
-35.886449539870355	33.295348048447238	0	1
-21.732339834638559	19.141238343215473	0	1
-31.93671227594	38.471371290920004	0	1
-31.583158885346723	38.117817900326727	0	1
-33.295348048447316	35.886449539870284	0	1
-19.141238343215516	21.732339834638523	0	1
-17.629730984092575	22.975512734834155	0	1
-30.135006410739123	39.272704965207524	0	1
-25.00000000000005	43.301270189221896	0	1
-28.894661727682792	40.805618775393953	0	1
-28.644661727682788	40.372606073501743	0	1
-26.046178236125051	41.448933177307552	0	1
-16.037711281897309	24.113759906711024	0	1
-20.891371612793101	45.426320477628195	0	1
-20.641371612793101	44.993307775735978	0	1
-22.872739973249541	43.281118612635382	0	1
-12.864273019021812	25.945945342038847	0	1
-11.082512201293014	26.755551261526858	0	1
-18.94365696983149	45.734033577510722	0	1
-12.940952255126065	48.296291314453406	0	1
-17.348828718390134	46.89368978977835	0	1
-17.219419195838874	46.410726876633809	0	1
-14.430902928932472	46.777842007735131	0	1
-9.2501392088657539	27.442968582436642	0	1
-8.4223184988583633	49.285540994330056	0	1
-8.2929089763071016	48.802578081185523	0	1
-10.891392467864851	47.726250977379706	0	1
-5.7106287477981299	28.391377552081224	0	1
-3.7800385266927181	28.712243185385546	0	1
-6.4613286123032188	49.078663380570539	0	1
-4.620701702234264	49.786033340475818	0	1
-4.620701702234264	49.286033340475818	0	1
-1.8321854353278617	48.918918209374517	0	1
-1.8321854353278413	28.901984300919075	0	1
0	25.260000000000002	0	3
0	20.312000000000001	0	3
-21.875801699594916	-12.630000000000011	0	3
21.875801699594927	-12.629999999999995	0	3
-17.590708001669515	-10.156000000000009	0	3
17.590708001669523	-10.155999999999995	0	17
-17.686443767699288	50.544952338013339	0	2
-23.23447422974537	48.246882876174809	0	2
-16.745148441127057	47.854884846634548	0	2
-20.03093401300638	46.575226060284606	0	2
-21.26856751273267	49.145198503580879	0	2
-11.915996013360699	52.207389697336957	0	2
-13.378363633244494	48.903061115810644	0	2
-14.013094408854608	51.683998346573027	0	2
-5.9956976953321712	53.213288839783445	0	2
-5.6765989384377376	50.381209041587688	0	2
-9.1647538741912005	49.864790046941195	0	2
-9.7994846498013377	52.645727277703585	0	2
5.5233595475101538e-015	53.55000000000031	0	2
-2.1609852925553703	50.653925243414129	0	2
-2.1609852925553827	53.506379456709602	0	2
5.9956976953321721	53.213288839783495	0	2
5.6765989384377198	50.381209041587731	0	2
2.1609852925553836	50.653925243414143	0	2
2.1609852925553774	53.506379456709617	0	2
11.915996013360703	52.207389697336971	0	2
9.1647538741912413	49.864790046941131	0	2
9.7994846498013324	52.645727277703571	0	2
17.686443767699291	50.544952338013402	0	2
16.745148441127068	47.854884846634569	0	2
13.378363633244501	48.903061115810623	0	2
14.013094408854597	51.683998346573055	0	2
23.234474229745317	48.246882876174823	0	2
20.030934013006423	46.575226060284542	0	2
21.268567512732641	49.145198503580794	0	2
28.490317697396392	45.342080868674891	0	2
26.974026279327774	42.928916900874313	0	2
23.924894958181206	44.699993302460641	0	2
25.162528457907435	47.269965745756878	0	2
33.387878889535344	41.867075886163242	0	2
29.892679478513205	40.950185757758213	0	2
31.671155590771836	43.180324264011155	0	2
37.865568132539828	37.865568132539835	0	2
35.850313806158248	35.850313806158219	0	2
33.27173214825357	38.25548117400826	0	2
35.050208260512221	40.485619680261138	0	2
41.867075886163242	33.387878889535351	0	2
38.255481174008239	33.271732148253541	0	2
40.485619680261173	35.050208260512228	0	2
45.342080868674863	28.490317697396428	0	2
42.928916900874363	26.974026279327738	0	2
40.950185757758234	29.892679478513195	0	2
43.180324264011169	31.671155590771903	0	2
48.246882876174809	23.23447422974537	0	2
44.699993302460626	23.924894958181184	0	2
47.269965745756913	25.162528457907474	0	2
50.544952338013339	17.686443767699291	0	2
47.854884846634548	16.745148441127057	0	2
46.575226060284606	20.03093401300638	0	2
49.145198503580879	21.268567512732673	0	2
52.207389697336957	11.915996013360703	0	2
48.903061115810644	13.378363633244497	0	2
51.683998346573027	14.013094408854611	0	2
53.213288839783445	5.9956976953321783	0	2
50.381209041587688	5.6765989384377411	0	2
49.864790046941195	9.164753874191204	0	2
52.645727277703585	9.7994846498013377	0	2
53.55000000000031	1.5820678100908481e-015	0	2
50.653925243414129	2.1609852925553703	0	2
53.506379456709602	2.1609852925553827	0	2
53.213288839783473	-5.9956976953322023	0	2
50.381209041587738	-5.676598938437734	0	2
50.653925243414136	-2.1609852925554085	0	2
53.50637945670961	-2.1609852925553965	0	2
52.207389697336957	-11.915996013360727	0	2
49.864790046941117	-9.1647538741912591	0	2
52.645727277703557	-9.7994846498013466	0	2
50.544952338013395	-17.68644376769933	0	2
47.854884846634562	-16.745148441127093	0	2
48.903061115810608	-13.378363633244518	0	2
51.683998346573048	-14.013094408854625	0	2
48.246882876174816	-23.234474229745331	0	2
46.575226060284521	-20.03093401300643	0	2
49.145198503580787	-21.268567512732666	0	2
45.342080868674877	-28.490317697396385	0	2
42.928916900874313	-26.974026279327767	0	2
44.699993302460641	-23.924894958181198	0	2
47.269965745756863	-25.162528457907428	0	2
41.867075886163235	-33.387878889535344	0	2
40.950185757758213	-29.892679478513198	0	2
43.180324264011148	-31.671155590771829	0	2
37.865568132539842	-37.865568132539813	0	2
35.850313806158233	-35.850313806158233	0	2
38.255481174008267	-33.271732148253562	0	2
40.485619680261145	-35.050208260512214	0	2
33.387878889535358	-41.867075886163221	0	2
33.271732148253562	-38.255481174008231	0	2
35.050208260512235	-40.485619680261166	0	2
28.490317697396431	-45.342080868674863	0	2
26.974026279327742	-42.928916900874363	0	2
29.892679478513202	-40.950185757758234	0	2
31.671155590771903	-43.180324264011169	0	2
23.234474229745373	-48.246882876174809	0	2
23.924894958181184	-44.699993302460626	0	2
25.162528457907474	-47.269965745756913	0	2
17.686443767699295	-50.544952338013339	0	2
16.745148441127061	-47.854884846634548	0	2
20.030934013006387	-46.575226060284606	0	2
21.268567512732677	-49.145198503580879	0	2
11.915996013360706	-52.207389697336957	0	2
13.378363633244501	-48.903061115810644	0	2
14.013094408854615	-51.683998346573027	0	2
5.9956976953321783	-53.213288839783445	0	2
5.6765989384377447	-50.381209041587688	0	2
9.1647538741912076	-49.864790046941195	0	2
9.7994846498013413	-52.645727277703585	0	2
1.5820678100908481e-015	-53.55000000000031	0	2
2.1609852925553739	-50.653925243414129	0	2
2.1609852925553898	-53.506379456709602	0	2
-5.9956976953321686	-53.213288839783495	0	2
-5.6765989384377127	-50.381209041587738	0	2
-2.1609852925553765	-50.653925243414143	0	2
-2.1609852925553716	-53.50637945670961	0	2
-11.915996013360695	-52.207389697336971	0	2
-9.1647538741912342	-49.864790046941131	0	2
-9.7994846498013253	-52.645727277703571	0	2
-17.686443767699281	-50.54495233801341	0	2
-16.745148441127064	-47.854884846634576	0	2
-13.378363633244499	-48.90306111581063	0	2
-14.01309440885459	-51.683998346573063	0	2
-23.23447422974531	-48.246882876174823	0	2
-20.030934013006416	-46.57522606028455	0	2
-21.268567512732634	-49.145198503580794	0	2
-28.490317697396435	-45.342080868674863	0	2
-26.974026279327795	-42.928916900874292	0	2
-23.924894958181241	-44.699993302460612	0	2
-25.162528457907477	-47.269965745756863	0	2
-33.387878889535386	-41.867075886163207	0	2
-29.89267947851323	-40.950185757758184	0	2
-31.671155590771857	-43.180324264011119	0	2
-37.865568132539835	-37.865568132539806	0	2
-35.85031380615829	-35.850313806158212	0	2
-33.271732148253598	-38.255481174008239	0	2
-35.050208260512264	-40.485619680261109	0	2
-41.867075886163256	-33.387878889535322	0	2
-38.255481174008253	-33.271732148253534	0	2
-40.485619680261195	-35.050208260512214	0	2
-45.342080868674884	-28.490317697396407	0	2
-42.928916900874377	-26.974026279327699	0	2
-40.950185757758256	-29.892679478513166	0	2
-43.18032426401119	-31.671155590771868	0	2
-48.246882876174816	-23.234474229745331	0	2
-44.699993302460626	-23.924894958181142	0	2
-47.269965745756927	-25.162528457907431	0	2
-50.544952338013339	-17.686443767699298	0	2
-47.85488484663454	-16.745148441127064	0	2
-46.575226060284606	-20.030934013006387	0	2
-49.145198503580879	-21.26856751273268	0	2
-52.207389697336957	-11.915996013360706	0	2
-48.903061115810644	-13.378363633244504	0	2
-51.683998346573027	-14.013094408854615	0	2
-53.213288839783445	-5.9956976953321783	0	2
-50.381209041587688	-5.6765989384377447	0	2
-49.864790046941195	-9.1647538741912111	0	2
-52.645727277703585	-9.7994846498013448	0	2
-53.55000000000031	-5.134781488891349e-015	0	2
-50.653925243414122	-2.1609852925553756	0	2
-53.506379456709602	-2.1609852925553898	0	2
-53.213288839783502	5.9956976953321623	0	2
-50.381209041587745	5.6765989384377127	0	2
-50.65392524341415	2.160985292555369	0	2
-53.506379456709617	2.1609852925553703	0	2
-52.207389697336978	11.915996013360695	0	2
-49.864790046941131	9.1647538741912324	0	2
-52.645727277703571	9.7994846498013253	0	2
-50.54495233801341	17.686443767699281	0	2
-47.854884846634576	16.745148441127064	0	2
-48.90306111581063	13.378363633244499	0	2
-51.683998346573063	14.01309440885459	0	2
-48.246882876174823	23.23447422974531	0	2
-46.57522606028455	20.030934013006416	0	2
-49.145198503580794	21.268567512732634	0	2
-45.342080868674891	28.490317697396385	0	2
-42.92891690087432	26.974026279327756	0	2
-44.699993302460648	23.924894958181191	0	2
-47.269965745756878	25.162528457907428	0	2
-41.867075886163242	33.387878889535337	0	2
-40.95018575775822	29.892679478513205	0	2
-43.180324264011148	31.671155590771829	0	2
-37.865568132539842	37.865568132539806	0	2
-35.85031380615824	35.850313806158233	0	2
-38.255481174008274	33.271732148253562	0	2
-40.485619680261152	35.050208260512214	0	2
-33.387878889535358	41.867075886163221	0	2
-33.271732148253562	38.255481174008231	0	2
-35.050208260512242	40.485619680261166	0	2
-28.490317697396428	45.342080868674856	0	2
-26.974026279327749	42.928916900874349	0	2
-29.892679478513209	40.950185757758234	0	2
-31.67115559077191	43.180324264011162	0	2
-23.924894958181191	44.699993302460626	0	2
-25.162528457907477	47.269965745756906	0	2
-24.123935894936373	50.093869055374796	0	20
-26.249966216612414	54.508616508096658	0	20
-53.521908130420947	-15.058730028751189	0	4
50.679725388529299	-22.867562934062107	0	4
-58.238766940476097	-16.385848322651949	0	4
55.146104064856523	-24.882869739402107	0	19
[NumSegments] = 272
1	2	1	0	0	1
2	3	1	0	0	1
3	4	1	0	0	1
2	6	1	0	0	1
5	6	1	0	0	1
8	9	1	0	0	1
9	10	1	0	0	1
10	11	1	0	0	1
9	6	1	0	0	1
12	13	1	0	0	1
13	14	1	0	0	1
14	15	1	0	0	1
13	17	1	0	0	1
16	17	1	0	0	1
19	20	1	0	0	1
20	21	1	0	0	1
21	22	1	0	0	1
20	17	1	0	0	1
23	24	1	0	0	1
24	25	1	0	0	1
25	26	1	0	0	1
24	28	1	0	0	1
27	28	1	0	0	1
30	31	1	0	0	1
31	32	1	0	0	1
32	33	1	0	0	1
31	28	1	0	0	1
34	35	1	0	0	1
35	36	1	0	0	1
36	37	1	0	0	1
35	39	1	0	0	1
38	39	1	0	0	1
41	42	1	0	0	1
42	43	1	0	0	1
43	44	1	0	0	1
42	39	1	0	0	1
45	46	1	0	0	1
46	47	1	0	0	1
47	48	1	0	0	1
46	50	1	0	0	1
49	50	1	0	0	1
52	53	1	0	0	1
53	54	1	0	0	1
54	55	1	0	0	1
53	50	1	0	0	1
56	57	1	0	0	1
57	58	1	0	0	1
58	59	1	0	0	1
57	61	1	0	0	1
60	61	1	0	0	1
63	64	1	0	0	1
64	65	1	0	0	1
65	66	1	0	0	1
64	61	1	0	0	1
67	68	1	0	0	1
68	69	1	0	0	1
69	70	1	0	0	1
68	72	1	0	0	1
71	72	1	0	0	1
74	75	1	0	0	1
75	76	1	0	0	1
76	77	1	0	0	1
75	72	1	0	0	1
78	79	1	0	0	1
79	80	1	0	0	1
80	81	1	0	0	1
79	83	1	0	0	1
82	83	1	0	0	1
85	86	1	0	0	1
86	87	1	0	0	1
87	88	1	0	0	1
86	83	1	0	0	1
89	90	1	0	0	1
90	91	1	0	0	1
91	92	1	0	0	1
90	94	1	0	0	1
93	94	1	0	0	1
96	97	1	0	0	1
97	98	1	0	0	1
98	99	1	0	0	1
97	94	1	0	0	1
100	101	1	0	0	1
101	102	1	0	0	1
102	103	1	0	0	1
101	105	1	0	0	1
104	105	1	0	0	1
107	108	1	0	0	1
108	109	1	0	0	1
109	110	1	0	0	1
108	105	1	0	0	1
111	112	1	0	0	1
112	113	1	0	0	1
113	114	1	0	0	1
112	116	1	0	0	1
115	116	1	0	0	1
118	119	1	0	0	1
119	120	1	0	0	1
120	121	1	0	0	1
119	116	1	0	0	1
122	123	1	0	0	1
123	124	1	0	0	1
124	125	1	0	0	1
123	127	1	0	0	1
126	127	1	0	0	1
129	130	1	0	0	1
130	131	1	0	0	1
131	132	1	0	0	1
130	127	1	0	0	1
133	134	1	0	0	1
134	135	1	0	0	1
135	136	1	0	0	1
134	138	1	0	0	1
137	138	1	0	0	1
140	141	1	0	0	1
141	142	1	0	0	1
142	143	1	0	0	1
141	138	1	0	0	1
144	145	1	0	0	1
145	146	1	0	0	1
146	147	1	0	0	1
145	149	1	0	0	1
148	149	1	0	0	1
151	152	1	0	0	1
152	153	1	0	0	1
153	154	1	0	0	1
152	149	1	0	0	1
155	156	1	0	0	1
156	157	1	0	0	1
157	158	1	0	0	1
156	160	1	0	0	1
159	160	1	0	0	1
162	163	1	0	0	1
163	164	1	0	0	1
164	165	1	0	0	1
163	160	1	0	0	1
166	167	1	0	0	1
167	168	1	0	0	1
168	169	1	0	0	1
167	171	1	0	0	1
170	171	1	0	0	1
173	174	1	0	0	1
174	175	1	0	0	1
175	176	1	0	0	1
174	171	1	0	0	1
177	178	1	0	0	1
178	179	1	0	0	1
179	180	1	0	0	1
178	182	1	0	0	1
181	182	1	0	0	1
184	185	1	0	0	1
185	186	1	0	0	1
186	187	1	0	0	1
185	182	1	0	0	1
188	189	1	0	0	1
189	190	1	0	0	1
190	191	1	0	0	1
189	193	1	0	0	1
192	193	1	0	0	1
195	196	1	0	0	1
196	197	1	0	0	1
197	198	1	0	0	1
196	193	1	0	0	1
199	200	1	0	0	1
200	201	1	0	0	1
201	202	1	0	0	1
200	204	1	0	0	1
203	204	1	0	0	1
206	207	1	0	0	1
207	208	1	0	0	1
208	209	1	0	0	1
207	204	1	0	0	1
210	211	1	0	0	1
211	212	1	0	0	1
212	213	1	0	0	1
211	215	1	0	0	1
214	215	1	0	0	1
217	218	1	0	0	1
218	219	1	0	0	1
219	220	1	0	0	1
218	215	1	0	0	1
221	222	1	0	0	1
222	223	1	0	0	1
223	224	1	0	0	1
222	226	1	0	0	1
225	226	1	0	0	1
228	229	1	0	0	1
229	230	1	0	0	1
230	231	1	0	0	1
229	226	1	0	0	1
232	233	1	0	0	1
233	234	1	0	0	1
234	235	1	0	0	1
233	237	1	0	0	1
236	237	1	0	0	1
239	240	1	0	0	1
240	241	1	0	0	1
241	242	1	0	0	1
240	237	1	0	0	1
243	244	1	0	0	1
244	245	1	0	0	1
245	246	1	0	0	1
244	248	1	0	0	1
247	248	1	0	0	1
250	251	1	0	0	1
251	252	1	0	0	1
252	253	1	0	0	1
251	248	1	0	0	1
254	255	1	0	0	1
255	256	1	0	0	1
256	257	1	0	0	1
255	259	1	0	0	1
258	259	1	0	0	1
260	261	1	0	0	1
261	262	1	0	0	1
262	263	1	0	0	1
261	259	1	0	0	1
273	274	1	0	0	2
276	277	1	0	0	2
280	281	1	0	0	2
283	284	1	0	0	2
287	288	1	0	0	2
290	291	1	0	0	2
294	295	1	0	0	2
297	298	1	0	0	2
301	302	1	0	0	2
304	305	1	0	0	2
308	309	1	0	0	2
311	312	1	0	0	2
315	316	1	0	0	2
318	319	1	0	0	2
322	323	1	0	0	2
325	326	1	0	0	2
329	330	1	0	0	2
332	333	1	0	0	2
336	337	1	0	0	2
339	340	1	0	0	2
343	344	1	0	0	2
346	347	1	0	0	2
350	351	1	0	0	2
353	354	1	0	0	2
357	358	1	0	0	2
360	361	1	0	0	2
364	365	1	0	0	2
367	368	1	0	0	2
371	372	1	0	0	2
374	375	1	0	0	2
378	379	1	0	0	2
381	382	1	0	0	2
385	386	1	0	0	2
388	389	1	0	0	2
392	393	1	0	0	2
395	396	1	0	0	2
399	400	1	0	0	2
402	403	1	0	0	2
406	407	1	0	0	2
409	410	1	0	0	2
413	414	1	0	0	2
416	417	1	0	0	2
420	421	1	0	0	2
423	424	1	0	0	2
427	428	1	0	0	2
430	431	1	0	0	2
434	435	1	0	0	2
437	438	1	0	0	2
441	442	1	0	0	2
444	445	1	0	0	2
448	449	1	0	0	2
451	452	1	0	0	2
455	456	1	0	0	2
458	459	1	0	0	2
462	463	1	0	0	2
464	465	1	0	0	2
[NumArcSegments] = 276
1	0	5.3081982142420898	1.9374573075700441	0	0	1	1.9374573075700441
5	4	3.8749146151400882	1.9374573075700441	0	0	1	1.9374573075700441
7	8	5.3081982142420898	1.9374573075700441	0	0	1	1.9374573075700441
11	5	3.8749146151400882	1.9374573075700441	0	0	1	1.9374573075700441
12	7	5.3081982142420898	1.9374573075700441	0	0	1	1.9374573075700441
16	15	3.8749146151400882	1.9374573075700441	0	0	1	1.9374573075700441